ptech18/manchester_models/network_2/Feeder_1/Loads_snap_g.txt
New Generator.LOAD1 Phases=1 Bus1=67.1 kV=0.23 kW=1 PF=1.00 !Daily=Shape_1
New Generator.LOAD2 Phases=1 Bus1=151.1 kV=0.23 kW=1 PF=1.00 !Daily=Shape_2
New Generator.LOAD3 Phases=1 Bus1=177.1 kV=0.23 kW=1 PF=1.00 !Daily=Shape_3
New Generator.LOAD4 Phases=1 Bus1=185.1 kV=0.23 kW=1 PF=1.00 !Daily=Shape_4
New Generator.LOAD5 Phases=1 Bus1=186.1 kV=0.23 kW=1 PF=1.00 !Daily=Shape_5
New Generator.LOAD6 Phases=1 Bus1=221.2 kV=0.23 kW=1 PF=1.00 !Daily=Shape_6
New Generator.LOAD7 Phases=1 Bus1=222.3 kV=0.23 kW=1 PF=1.00 !Daily=Shape_7
New Generator.LOAD8 Phases=1 Bus1=253.2 kV=0.23 kW=1 PF=1.00 !Daily=Shape_8
New Generator.LOAD9 Phases=1 Bus1=267.1 kV=0.23 kW=1 PF=1.00 !Daily=Shape_9
New Generator.LOAD10 Phases=1 Bus1=268.2 kV=0.23 kW=1 PF=1.00 !Daily=Shape_10
New Generator.LOAD11 Phases=1 Bus1=279.3 kV=0.23 kW=1 PF=1.00 !Daily=Shape_11
New Generator.LOAD12 Phases=1 Bus1=280.2 kV=0.23 kW=1 PF=1.00 !Daily=Shape_12
New Generator.LOAD13 Phases=1 Bus1=293.1 kV=0.23 kW=1 PF=1.00 !Daily=Shape_13
New Generator.LOAD14 Phases=1 Bus1=306.3 kV=0.23 kW=1 PF=1.00 !Daily=Shape_14
New Generator.LOAD15 Phases=1 Bus1=307.2 kV=0.23 kW=1 PF=1.00 !Daily=Shape_15
New Generator.LOAD16 Phases=1 Bus1=308.2 kV=0.23 kW=1 PF=1.00 !Daily=Shape_16
New Generator.LOAD17 Phases=1 Bus1=309.2 kV=0.23 kW=1 PF=1.00 !Daily=Shape_17
New Generator.LOAD18 Phases=1 Bus1=311.1 kV=0.23 kW=1 PF=1.00 !Daily=Shape_18
New Generator.LOAD19 Phases=1 Bus1=322.3 kV=0.23 kW=1 PF=1.00 !Daily=Shape_19
New Generator.LOAD20 Phases=1 Bus1=348.3 kV=0.23 kW=1 PF=1.00 !Daily=Shape_20
New Generator.LOAD21 Phases=1 Bus1=363.1 kV=0.23 kW=1 PF=1.00 !Daily=Shape_21
New Generator.LOAD22 Phases=1 Bus1=377.1 kV=0.23 kW=1 PF=1.00 !Daily=Shape_22
New Generator.LOAD23 Phases=1 Bus1=393.1 kV=0.23 kW=1 PF=1.00 !Daily=Shape_23
New Generator.LOAD24 Phases=1 Bus1=395.1 kV=0.23 kW=1 PF=1.00 !Daily=Shape_24
New Generator.LOAD25 Phases=1 Bus1=407.3 kV=0.23 kW=1 PF=1.00 !Daily=Shape_25
New Generator.LOAD26 Phases=1 Bus1=409.1 kV=0.23 kW=1 PF=1.00 !Daily=Shape_26
New Generator.LOAD27 Phases=1 Bus1=435.3 kV=0.23 kW=1 PF=1.00 !Daily=Shape_27
New Generator.LOAD28 Phases=1 Bus1=437.2 kV=0.23 kW=1 PF=1.00 !Daily=Shape_28
New Generator.LOAD29 Phases=1 Bus1=463.2 kV=0.23 kW=1 PF=1.00 !Daily=Shape_29
New Generator.LOAD30 Phases=1 Bus1=483.2 kV=0.23 kW=1 PF=1.00 !Daily=Shape_30
New Generator.LOAD31 Phases=1 Bus1=499.2 kV=0.23 kW=1 PF=1.00 !Daily=Shape_31
New Generator.LOAD32 Phases=1 Bus1=502.3 kV=0.23 kW=1 PF=1.00 !Daily=Shape_32
New Generator.LOAD33 Phases=1 Bus1=514.1 kV=0.23 kW=1 PF=1.00 !Daily=Shape_33
New Generator.LOAD34 Phases=1 Bus1=515.1 kV=0.23 kW=1 PF=1.00 !Daily=Shape_34
New Generator.LOAD35 Phases=1 Bus1=520.1 kV=0.23 kW=1 PF=1.00 !Daily=Shape_35
New Generator.LOAD36 Phases=1 Bus1=526.2 kV=0.23 kW=1 PF=1.00 !Daily=Shape_36
New Generator.LOAD37 Phases=1 Bus1=527.3 kV=0.23 kW=1 PF=1.00 !Daily=Shape_37
New Generator.LOAD38 Phases=1 Bus1=541.1 kV=0.23 kW=1 PF=1.00 !Daily=Shape_38
New Generator.LOAD39 Phases=1 Bus1=545.1 kV=0.23 kW=1 PF=1.00 !Daily=Shape_39
New Generator.LOAD40 Phases=1 Bus1=550.2 kV=0.23 kW=1 PF=1.00 !Daily=Shape_40
New Generator.LOAD41 Phases=1 Bus1=569.2 kV=0.23 kW=1 PF=1.00 !Daily=Shape_41
New Generator.LOAD42 Phases=1 Bus1=573.2 kV=0.23 kW=1 PF=1.00 !Daily=Shape_42
New Generator.LOAD43 Phases=1 Bus1=589.1 kV=0.23 kW=1 PF=1.00 !Daily=Shape_43
New Generator.LOAD44 Phases=1 Bus1=591.3 kV=0.23 kW=1 PF=1.00 !Daily=Shape_44
New Generator.LOAD45 Phases=1 Bus1=595.3 kV=0.23 kW=1 PF=1.00 !Daily=Shape_45
New Generator.LOAD46 Phases=1 Bus1=613.1 kV=0.23 kW=1 PF=1.00 !Daily=Shape_46
New Generator.LOAD47 Phases=1 Bus1=614.3 kV=0.23 kW=1 PF=1.00 !Daily=Shape_47
New Generator.LOAD48 Phases=1 Bus1=616.1 kV=0.23 kW=1 PF=1.00 !Daily=Shape_48
New Generator.LOAD49 Phases=1 Bus1=619.3 kV=0.23 kW=1 PF=1.00 !Daily=Shape_49
New Generator.LOAD50 Phases=1 Bus1=637.2 kV=0.23 kW=1 PF=1.00 !Daily=Shape_50
New Generator.LOAD51 Phases=1 Bus1=639.1 kV=0.23 kW=1 PF=1.00 !Daily=Shape_51
New Generator.LOAD52 Phases=1 Bus1=641.2 kV=0.23 kW=1 PF=1.00 !Daily=Shape_52
New Generator.LOAD53 Phases=1 Bus1=642.1 kV=0.23 kW=1 PF=1.00 !Daily=Shape_53
New Generator.LOAD54 Phases=1 Bus1=666.2 kV=0.23 kW=1 PF=1.00 !Daily=Shape_54
New Generator.LOAD55 Phases=1 Bus1=667.2 kV=0.23 kW=1 PF=1.00 !Daily=Shape_55
New Generator.LOAD56 Phases=1 Bus1=689.3 kV=0.23 kW=1 PF=1.00 !Daily=Shape_56
New Generator.LOAD57 Phases=1 Bus1=691.3 kV=0.23 kW=1 PF=1.00 !Daily=Shape_57
New Generator.LOAD58 Phases=1 Bus1=692.3 kV=0.23 kW=1 PF=1.00 !Daily=Shape_58
New Generator.LOAD59 Phases=1 Bus1=693.3 kV=0.23 kW=1 PF=1.00 !Daily=Shape_59
New Generator.LOAD60 Phases=1 Bus1=733.2 kV=0.23 kW=1 PF=1.00 !Daily=Shape_60
New Generator.LOAD61 Phases=1 Bus1=734.3 kV=0.23 kW=1 PF=1.00 !Daily=Shape_61
New Generator.LOAD62 Phases=1 Bus1=742.3 kV=0.23 kW=1 PF=1.00 !Daily=Shape_62
New Generator.LOAD63 Phases=1 Bus1=762.1 kV=0.23 kW=1 PF=1.00 !Daily=Shape_63
New Generator.LOAD64 Phases=1 Bus1=763.1 kV=0.23 kW=1 PF=1.00 !Daily=Shape_64
New Generator.LOAD65 Phases=1 Bus1=798.1 kV=0.23 kW=1 PF=1.00 !Daily=Shape_65
New Generator.LOAD66 Phases=1 Bus1=863.2 kV=0.23 kW=1 PF=1.00 !Daily=Shape_66
New Generator.LOAD67 Phases=1 Bus1=865.1 kV=0.23 kW=1 PF=1.00 !Daily=Shape_67
New Generator.LOAD68 Phases=1 Bus1=878.2 kV=0.23 kW=1 PF=1.00 !Daily=Shape_68
New Generator.LOAD69 Phases=1 Bus1=879.2 kV=0.23 kW=1 PF=1.00 !Daily=Shape_69
New Generator.LOAD70 Phases=1 Bus1=880.2 kV=0.23 kW=1 PF=1.00 !Daily=Shape_70
New Generator.LOAD71 Phases=1 Bus1=900.2 kV=0.23 kW=1 PF=1.00 !Daily=Shape_71
New Generator.LOAD72 Phases=1 Bus1=910.3 kV=0.23 kW=1 PF=1.00 !Daily=Shape_72
New Generator.LOAD73 Phases=1 Bus1=1024.3 kV=0.23 kW=1 PF=1.00 !Daily=Shape_73
New Generator.LOAD74 Phases=1 Bus1=1054.3 kV=0.23 kW=1 PF=1.00 !Daily=Shape_74
New Generator.LOAD75 Phases=1 Bus1=1070.2 kV=0.23 kW=1 PF=1.00 !Daily=Shape_75
New Generator.LOAD76 Phases=1 Bus1=1120.1 kV=0.23 kW=1 PF=1.00 !Daily=Shape_76
New Generator.LOAD77 Phases=1 Bus1=1154.1 kV=0.23 kW=1 PF=1.00 !Daily=Shape_77
New Generator.LOAD78 Phases=1 Bus1=1164.1 kV=0.23 kW=1 PF=1.00 !Daily=Shape_78
New Generator.LOAD79 Phases=1 Bus1=1166.2 kV=0.23 kW=1 PF=1.00 !Daily=Shape_79
New Generator.LOAD80 Phases=1 Bus1=1171.2 kV=0.23 kW=1 PF=1.00 !Daily=Shape_80
New Generator.LOAD81 Phases=1 Bus1=1190.1 kV=0.23 kW=1 PF=1.00 !Daily=Shape_81
New Generator.LOAD82 Phases=1 Bus1=1209.3 kV=0.23 kW=1 PF=1.00 !Daily=Shape_82
New Generator.LOAD83 Phases=1 Bus1=1220.1 kV=0.23 kW=1 PF=1.00 !Daily=Shape_83
New Generator.LOAD84 Phases=1 Bus1=1224.1 kV=0.23 kW=1 PF=1.00 !Daily=Shape_84
New Generator.LOAD85 Phases=1 Bus1=1226.3 kV=0.23 kW=1 PF=1.00 !Daily=Shape_85
New Generator.LOAD86 Phases=1 Bus1=1228.2 kV=0.23 kW=1 PF=1.00 !Daily=Shape_86
New Generator.LOAD87 Phases=1 Bus1=1269.1 kV=0.23 kW=1 PF=1.00 !Daily=Shape_87
New Generator.LOAD88 Phases=1 Bus1=1303.3 kV=0.23 kW=1 PF=1.00 !Daily=Shape_88
New Generator.LOAD89 Phases=1 Bus1=1318.2 kV=0.23 kW=1 PF=1.00 !Daily=Shape_89
New Generator.LOAD90 Phases=1 Bus1=1319.1 kV=0.23 kW=1 PF=1.00 !Daily=Shape_90
New Generator.LOAD91 Phases=1 Bus1=1321.3 kV=0.23 kW=1 PF=1.00 !Daily=Shape_91
New Generator.LOAD92 Phases=1 Bus1=1323.2 kV=0.23 kW=1 PF=1.00 !Daily=Shape_92
New Generator.LOAD93 Phases=1 Bus1=1325.2 kV=0.23 kW=1 PF=1.00 !Daily=Shape_93
New Generator.LOAD94 Phases=1 Bus1=1329.3 kV=0.23 kW=1 PF=1.00 !Daily=Shape_94
New Generator.LOAD95 Phases=1 Bus1=1330.2 kV=0.23 kW=1 PF=1.00 !Daily=Shape_95
New Generator.LOAD96 Phases=1 Bus1=1349.3 kV=0.23 kW=1 PF=1.00 !Daily=Shape_96
New Generator.LOAD97 Phases=1 Bus1=1394.2 kV=0.23 kW=1 PF=1.00 !Daily=Shape_97
New Generator.LOAD98 Phases=1 Bus1=1399.1 kV=0.23 kW=1 PF=1.00 !Daily=Shape_98
New Generator.LOAD99 Phases=1 Bus1=1414.2 kV=0.23 kW=1 PF=1.00 !Daily=Shape_99
New Generator.LOAD100 Phases=1 Bus1=1416.2 kV=0.23 kW=1 PF=1.00 !Daily=Shape_100
New Generator.LOAD101 Phases=1 Bus1=1457.2 kV=0.23 kW=1 PF=1.00 !Daily=Shape_101
New Generator.LOAD102 Phases=1 Bus1=1487.1 kV=0.23 kW=1 PF=1.00 !Daily=Shape_102
New Generator.LOAD103 Phases=1 Bus1=1488.3 kV=0.23 kW=1 PF=1.00 !Daily=Shape_103
New Generator.LOAD104 Phases=1 Bus1=1504.1 kV=0.23 kW=1 PF=1.00 !Daily=Shape_104
New Generator.LOAD105 Phases=1 Bus1=1515.2 kV=0.23 kW=1 PF=1.00 !Daily=Shape_105
New Generator.LOAD106 Phases=1 Bus1=1517.1 kV=0.23 kW=1 PF=1.00 !Daily=Shape_106
New Generator.LOAD107 Phases=1 Bus1=1520.2 kV=0.23 kW=1 PF=1.00 !Daily=Shape_107
New Generator.LOAD108 Phases=1 Bus1=1530.3 kV=0.23 kW=1 PF=1.00 !Daily=Shape_108
New Generator.LOAD109 Phases=1 Bus1=1545.3 kV=0.23 kW=1 PF=1.00 !Daily=Shape_109
New Generator.LOAD110 Phases=1 Bus1=1546.2 kV=0.23 kW=1 PF=1.00 !Daily=Shape_110
New Generator.LOAD111 Phases=1 Bus1=1559.3 kV=0.23 kW=1 PF=1.00 !Daily=Shape_111
New Generator.LOAD112 Phases=1 Bus1=1594.1 kV=0.23 kW=1 PF=1.00 !Daily=Shape_112
New Generator.LOAD113 Phases=1 Bus1=1596.1 kV=0.23 kW=1 PF=1.00 !Daily=Shape_113
New Generator.LOAD114 Phases=1 Bus1=1598.2 kV=0.23 kW=1 PF=1.00 !Daily=Shape_114
New Generator.LOAD115 Phases=1 Bus1=1629.1 kV=0.23 kW=1 PF=1.00 !Daily=Shape_115
New Generator.LOAD116 Phases=1 Bus1=1630.3 kV=0.23 kW=1 PF=1.00 !Daily=Shape_116
New Generator.LOAD117 Phases=1 Bus1=1655.3 kV=0.23 kW=1 PF=1.00 !Daily=Shape_117
New Generator.LOAD118 Phases=1 Bus1=1659.1 kV=0.23 kW=1 PF=1.00 !Daily=Shape_118
New Generator.LOAD119 Phases=1 Bus1=1691.1 kV=0.23 kW=1 PF=1.00 !Daily=Shape_119
New Generator.LOAD120 Phases=1 Bus1=1723.3 kV=0.23 kW=1 PF=1.00 !Daily=Shape_120
New Generator.LOAD121 Phases=1 Bus1=1740.3 kV=0.23 kW=1 PF=1.00 !Daily=Shape_121
New Generator.LOAD122 Phases=1 Bus1=1752.3 kV=0.23 kW=1 PF=1.00 !Daily=Shape_122
New Generator.LOAD123 Phases=1 Bus1=1766.3 kV=0.23 kW=1 PF=1.00 !Daily=Shape_123
New Generator.LOAD124 Phases=1 Bus1=1771.1 kV=0.23 kW=1 PF=1.00 !Daily=Shape_124
New Generator.LOAD125 Phases=1 Bus1=1777.2 kV=0.23 kW=1 PF=1.00 !Daily=Shape_125
New Generator.LOAD126 Phases=1 Bus1=1785.1 kV=0.23 kW=1 PF=1.00 !Daily=Shape_126
New Generator.LOAD127 Phases=1 Bus1=1799.3 kV=0.23 kW=1 PF=1.00 !Daily=Shape_127
New Generator.LOAD128 Phases=1 Bus1=1801.2 kV=0.23 kW=1 PF=1.00 !Daily=Shape_128
New Generator.LOAD129 Phases=1 Bus1=1805.2 kV=0.23 kW=1 PF=1.00 !Daily=Shape_129
New Generator.LOAD130 Phases=1 Bus1=1807.3 kV=0.23 kW=1 PF=1.00 !Daily=Shape_130
New Generator.LOAD131 Phases=1 Bus1=1809.1 kV=0.23 kW=1 PF=1.00 !Daily=Shape_131
New Generator.LOAD132 Phases=1 Bus1=1817.3 kV=0.23 kW=1 PF=1.00 !Daily=Shape_132
New Generator.LOAD133 Phases=1 Bus1=1822.3 kV=0.23 kW=1 PF=1.00 !Daily=Shape_133
New Generator.LOAD134 Phases=1 Bus1=1830.2 kV=0.23 kW=1 PF=1.00 !Daily=Shape_134
New Generator.LOAD135 Phases=1 Bus1=1831.3 kV=0.23 kW=1 PF=1.00 !Daily=Shape_135
New Generator.LOAD136 Phases=1 Bus1=1839.3 kV=0.23 kW=1 PF=1.00 !Daily=Shape_136
New Generator.LOAD137 Phases=1 Bus1=1848.3 kV=0.23 kW=1 PF=1.00 !Daily=Shape_137
New Generator.LOAD138 Phases=1 Bus1=1856.3 kV=0.23 kW=1 PF=1.00 !Daily=Shape_138
New Generator.LOAD139 Phases=1 Bus1=1857.2 kV=0.23 kW=1 PF=1.00 !Daily=Shape_139
New Generator.LOAD140 Phases=1 Bus1=1865.2 kV=0.23 kW=1 PF=1.00 !Daily=Shape_140
New Generator.LOAD141 Phases=1 Bus1=1867.3 kV=0.23 kW=1 PF=1.00 !Daily=Shape_141
New Generator.LOAD142 Phases=1 Bus1=1870.3 kV=0.23 kW=1 PF=1.00 !Daily=Shape_142
New Generator.LOAD143 Phases=1 Bus1=1883.1 kV=0.23 kW=1 PF=1.00 !Daily=Shape_143
New Generator.LOAD144 Phases=1 Bus1=1888.1 kV=0.23 kW=1 PF=1.00 !Daily=Shape_144
New Generator.LOAD145 Phases=1 Bus1=1906.1 kV=0.23 kW=1 PF=1.00 !Daily=Shape_145
New Generator.LOAD146 Phases=1 Bus1=1919.3 kV=0.23 kW=1 PF=1.00 !Daily=Shape_146
New Generator.LOAD147 Phases=1 Bus1=1936.2 kV=0.23 kW=1 PF=1.00 !Daily=Shape_147
New Generator.LOAD148 Phases=1 Bus1=1939.3 kV=0.23 kW=1 PF=1.00 !Daily=Shape_148
New Generator.LOAD149 Phases=1 Bus1=1952.2 kV=0.23 kW=1 PF=1.00 !Daily=Shape_149
New Generator.LOAD150 Phases=1 Bus1=1953.1 kV=0.23 kW=1 PF=1.00 !Daily=Shape_150
New Generator.LOAD151 Phases=1 Bus1=1957.2 kV=0.23 kW=1 PF=1.00 !Daily=Shape_151
New Generator.LOAD152 Phases=1 Bus1=1959.2 kV=0.23 kW=1 PF=1.00 !Daily=Shape_152
New Generator.LOAD153 Phases=1 Bus1=2005.2 kV=0.23 kW=1 PF=1.00 !Daily=Shape_153
New Generator.LOAD154 Phases=1 Bus1=2030.1 kV=0.23 kW=1 PF=1.00 !Daily=Shape_154
New Generator.LOAD155 Phases=1 Bus1=2033.2 kV=0.23 kW=1 PF=1.00 !Daily=Shape_155
New Generator.LOAD156 Phases=1 Bus1=2039.1 kV=0.23 kW=1 PF=1.00 !Daily=Shape_156
New Generator.LOAD157 Phases=1 Bus1=2040.1 kV=0.23 kW=1 PF=1.00 !Daily=Shape_157
New Generator.LOAD158 Phases=1 Bus1=2051.1 kV=0.23 kW=1 PF=1.00 !Daily=Shape_158
New Generator.LOAD159 Phases=1 Bus1=2075.2 kV=0.23 kW=1 PF=1.00 !Daily=Shape_159
New Generator.LOAD160 Phases=1 Bus1=2085.2 kV=0.23 kW=1 PF=1.00 !Daily=Shape_160
New Generator.LOAD161 Phases=1 Bus1=2096.2 kV=0.23 kW=1 PF=1.00 !Daily=Shape_161
New Generator.LOAD162 Phases=1 Bus1=2099.3 kV=0.23 kW=1 PF=1.00 !Daily=Shape_162
New Generator.LOAD163 Phases=1 Bus1=2100.3 kV=0.23 kW=1 PF=1.00 !Daily=Shape_163
New Generator.LOAD164 Phases=1 Bus1=2125.2 kV=0.23 kW=1 PF=1.00 !Daily=Shape_164
New Generator.LOAD165 Phases=1 Bus1=2164.1 kV=0.23 kW=1 PF=1.00 !Daily=Shape_165
New Generator.LOAD166 Phases=1 Bus1=2177.1 kV=0.23 kW=1 PF=1.00 !Daily=Shape_166
New Generator.LOAD167 Phases=1 Bus1=2184.1 kV=0.23 kW=1 PF=1.00 !Daily=Shape_167
New Generator.LOAD168 Phases=1 Bus1=2195.1 kV=0.23 kW=1 PF=1.00 !Daily=Shape_168
New Generator.LOAD169 Phases=1 Bus1=2199.2 kV=0.23 kW=1 PF=1.00 !Daily=Shape_169
New Generator.LOAD170 Phases=1 Bus1=2220.3 kV=0.23 kW=1 PF=1.00 !Daily=Shape_170
New Generator.LOAD171 Phases=1 Bus1=2227.3 kV=0.23 kW=1 PF=1.00 !Daily=Shape_171
New Generator.LOAD172 Phases=1 Bus1=2250.2 kV=0.23 kW=1 PF=1.00 !Daily=Shape_172
New Generator.LOAD173 Phases=1 Bus1=2252.1 kV=0.23 kW=1 PF=1.00 !Daily=Shape_173
New Generator.LOAD174 Phases=1 Bus1=2256.2 kV=0.23 kW=1 PF=1.00 !Daily=Shape_174
New Generator.LOAD175 Phases=1 Bus1=2266.1 kV=0.23 kW=1 PF=1.00 !Daily=Shape_175


New Load.LOAD1 Phases=1 Bus1=67.1 kV=0.23 kW=1 PF=0.95 !Daily=Shape_1
New Load.LOAD2 Phases=1 Bus1=151.1 kV=0.23 kW=1 PF=0.95 !Daily=Shape_2
New Load.LOAD3 Phases=1 Bus1=177.1 kV=0.23 kW=1 PF=0.95 !Daily=Shape_3
New Load.LOAD4 Phases=1 Bus1=185.1 kV=0.23 kW=1 PF=0.95 !Daily=Shape_4
New Load.LOAD5 Phases=1 Bus1=186.1 kV=0.23 kW=1 PF=0.95 !Daily=Shape_5
New Load.LOAD6 Phases=1 Bus1=221.2 kV=0.23 kW=1 PF=0.95 !Daily=Shape_6
New Load.LOAD7 Phases=1 Bus1=222.3 kV=0.23 kW=1 PF=0.95 !Daily=Shape_7
New Load.LOAD8 Phases=1 Bus1=253.2 kV=0.23 kW=1 PF=0.95 !Daily=Shape_8
New Load.LOAD9 Phases=1 Bus1=267.1 kV=0.23 kW=1 PF=0.95 !Daily=Shape_9
New Load.LOAD10 Phases=1 Bus1=268.2 kV=0.23 kW=1 PF=0.95 !Daily=Shape_10
New Load.LOAD11 Phases=1 Bus1=279.3 kV=0.23 kW=1 PF=0.95 !Daily=Shape_11
New Load.LOAD12 Phases=1 Bus1=280.2 kV=0.23 kW=1 PF=0.95 !Daily=Shape_12
New Load.LOAD13 Phases=1 Bus1=293.1 kV=0.23 kW=1 PF=0.95 !Daily=Shape_13
New Load.LOAD14 Phases=1 Bus1=306.3 kV=0.23 kW=1 PF=0.95 !Daily=Shape_14
New Load.LOAD15 Phases=1 Bus1=307.2 kV=0.23 kW=1 PF=0.95 !Daily=Shape_15
New Load.LOAD16 Phases=1 Bus1=308.2 kV=0.23 kW=1 PF=0.95 !Daily=Shape_16
New Load.LOAD17 Phases=1 Bus1=309.2 kV=0.23 kW=1 PF=0.95 !Daily=Shape_17
New Load.LOAD18 Phases=1 Bus1=311.1 kV=0.23 kW=1 PF=0.95 !Daily=Shape_18
New Load.LOAD19 Phases=1 Bus1=322.3 kV=0.23 kW=1 PF=0.95 !Daily=Shape_19
New Load.LOAD20 Phases=1 Bus1=348.3 kV=0.23 kW=1 PF=0.95 !Daily=Shape_20
New Load.LOAD21 Phases=1 Bus1=363.1 kV=0.23 kW=1 PF=0.95 !Daily=Shape_21
New Load.LOAD22 Phases=1 Bus1=377.1 kV=0.23 kW=1 PF=0.95 !Daily=Shape_22
New Load.LOAD23 Phases=1 Bus1=393.1 kV=0.23 kW=1 PF=0.95 !Daily=Shape_23
New Load.LOAD24 Phases=1 Bus1=395.1 kV=0.23 kW=1 PF=0.95 !Daily=Shape_24
New Load.LOAD25 Phases=1 Bus1=407.3 kV=0.23 kW=1 PF=0.95 !Daily=Shape_25
New Load.LOAD26 Phases=1 Bus1=409.1 kV=0.23 kW=1 PF=0.95 !Daily=Shape_26
New Load.LOAD27 Phases=1 Bus1=435.3 kV=0.23 kW=1 PF=0.95 !Daily=Shape_27
New Load.LOAD28 Phases=1 Bus1=437.2 kV=0.23 kW=1 PF=0.95 !Daily=Shape_28
New Load.LOAD29 Phases=1 Bus1=463.2 kV=0.23 kW=1 PF=0.95 !Daily=Shape_29
New Load.LOAD30 Phases=1 Bus1=483.2 kV=0.23 kW=1 PF=0.95 !Daily=Shape_30
New Load.LOAD31 Phases=1 Bus1=499.2 kV=0.23 kW=1 PF=0.95 !Daily=Shape_31
New Load.LOAD32 Phases=1 Bus1=502.3 kV=0.23 kW=1 PF=0.95 !Daily=Shape_32
New Load.LOAD33 Phases=1 Bus1=514.1 kV=0.23 kW=1 PF=0.95 !Daily=Shape_33
New Load.LOAD34 Phases=1 Bus1=515.1 kV=0.23 kW=1 PF=0.95 !Daily=Shape_34
New Load.LOAD35 Phases=1 Bus1=520.1 kV=0.23 kW=1 PF=0.95 !Daily=Shape_35
New Load.LOAD36 Phases=1 Bus1=526.2 kV=0.23 kW=1 PF=0.95 !Daily=Shape_36
New Load.LOAD37 Phases=1 Bus1=527.3 kV=0.23 kW=1 PF=0.95 !Daily=Shape_37
New Load.LOAD38 Phases=1 Bus1=541.1 kV=0.23 kW=1 PF=0.95 !Daily=Shape_38
New Load.LOAD39 Phases=1 Bus1=545.1 kV=0.23 kW=1 PF=0.95 !Daily=Shape_39
New Load.LOAD40 Phases=1 Bus1=550.2 kV=0.23 kW=1 PF=0.95 !Daily=Shape_40
New Load.LOAD41 Phases=1 Bus1=569.2 kV=0.23 kW=1 PF=0.95 !Daily=Shape_41
New Load.LOAD42 Phases=1 Bus1=573.2 kV=0.23 kW=1 PF=0.95 !Daily=Shape_42
New Load.LOAD43 Phases=1 Bus1=589.1 kV=0.23 kW=1 PF=0.95 !Daily=Shape_43
New Load.LOAD44 Phases=1 Bus1=591.3 kV=0.23 kW=1 PF=0.95 !Daily=Shape_44
New Load.LOAD45 Phases=1 Bus1=595.3 kV=0.23 kW=1 PF=0.95 !Daily=Shape_45
New Load.LOAD46 Phases=1 Bus1=613.1 kV=0.23 kW=1 PF=0.95 !Daily=Shape_46
New Load.LOAD47 Phases=1 Bus1=614.3 kV=0.23 kW=1 PF=0.95 !Daily=Shape_47
New Load.LOAD48 Phases=1 Bus1=616.1 kV=0.23 kW=1 PF=0.95 !Daily=Shape_48
New Load.LOAD49 Phases=1 Bus1=619.3 kV=0.23 kW=1 PF=0.95 !Daily=Shape_49
New Load.LOAD50 Phases=1 Bus1=637.2 kV=0.23 kW=1 PF=0.95 !Daily=Shape_50
New Load.LOAD51 Phases=1 Bus1=639.1 kV=0.23 kW=1 PF=0.95 !Daily=Shape_51
New Load.LOAD52 Phases=1 Bus1=641.2 kV=0.23 kW=1 PF=0.95 !Daily=Shape_52
New Load.LOAD53 Phases=1 Bus1=642.1 kV=0.23 kW=1 PF=0.95 !Daily=Shape_53
New Load.LOAD54 Phases=1 Bus1=666.2 kV=0.23 kW=1 PF=0.95 !Daily=Shape_54
New Load.LOAD55 Phases=1 Bus1=667.2 kV=0.23 kW=1 PF=0.95 !Daily=Shape_55
New Load.LOAD56 Phases=1 Bus1=689.3 kV=0.23 kW=1 PF=0.95 !Daily=Shape_56
New Load.LOAD57 Phases=1 Bus1=691.3 kV=0.23 kW=1 PF=0.95 !Daily=Shape_57
New Load.LOAD58 Phases=1 Bus1=692.3 kV=0.23 kW=1 PF=0.95 !Daily=Shape_58
New Load.LOAD59 Phases=1 Bus1=693.3 kV=0.23 kW=1 PF=0.95 !Daily=Shape_59
New Load.LOAD60 Phases=1 Bus1=733.2 kV=0.23 kW=1 PF=0.95 !Daily=Shape_60
New Load.LOAD61 Phases=1 Bus1=734.3 kV=0.23 kW=1 PF=0.95 !Daily=Shape_61
New Load.LOAD62 Phases=1 Bus1=742.3 kV=0.23 kW=1 PF=0.95 !Daily=Shape_62
New Load.LOAD63 Phases=1 Bus1=762.1 kV=0.23 kW=1 PF=0.95 !Daily=Shape_63
New Load.LOAD64 Phases=1 Bus1=763.1 kV=0.23 kW=1 PF=0.95 !Daily=Shape_64
New Load.LOAD65 Phases=1 Bus1=798.1 kV=0.23 kW=1 PF=0.95 !Daily=Shape_65
New Load.LOAD66 Phases=1 Bus1=863.2 kV=0.23 kW=1 PF=0.95 !Daily=Shape_66
New Load.LOAD67 Phases=1 Bus1=865.1 kV=0.23 kW=1 PF=0.95 !Daily=Shape_67
New Load.LOAD68 Phases=1 Bus1=878.2 kV=0.23 kW=1 PF=0.95 !Daily=Shape_68
New Load.LOAD69 Phases=1 Bus1=879.2 kV=0.23 kW=1 PF=0.95 !Daily=Shape_69
New Load.LOAD70 Phases=1 Bus1=880.2 kV=0.23 kW=1 PF=0.95 !Daily=Shape_70
New Load.LOAD71 Phases=1 Bus1=900.2 kV=0.23 kW=1 PF=0.95 !Daily=Shape_71
New Load.LOAD72 Phases=1 Bus1=910.3 kV=0.23 kW=1 PF=0.95 !Daily=Shape_72
New Load.LOAD73 Phases=1 Bus1=1024.3 kV=0.23 kW=1 PF=0.95 !Daily=Shape_73
New Load.LOAD74 Phases=1 Bus1=1054.3 kV=0.23 kW=1 PF=0.95 !Daily=Shape_74
New Load.LOAD75 Phases=1 Bus1=1070.2 kV=0.23 kW=1 PF=0.95 !Daily=Shape_75
New Load.LOAD76 Phases=1 Bus1=1120.1 kV=0.23 kW=1 PF=0.95 !Daily=Shape_76
New Load.LOAD77 Phases=1 Bus1=1154.1 kV=0.23 kW=1 PF=0.95 !Daily=Shape_77
New Load.LOAD78 Phases=1 Bus1=1164.1 kV=0.23 kW=1 PF=0.95 !Daily=Shape_78
New Load.LOAD79 Phases=1 Bus1=1166.2 kV=0.23 kW=1 PF=0.95 !Daily=Shape_79
New Load.LOAD80 Phases=1 Bus1=1171.2 kV=0.23 kW=1 PF=0.95 !Daily=Shape_80
New Load.LOAD81 Phases=1 Bus1=1190.1 kV=0.23 kW=1 PF=0.95 !Daily=Shape_81
New Load.LOAD82 Phases=1 Bus1=1209.3 kV=0.23 kW=1 PF=0.95 !Daily=Shape_82
New Load.LOAD83 Phases=1 Bus1=1220.1 kV=0.23 kW=1 PF=0.95 !Daily=Shape_83
New Load.LOAD84 Phases=1 Bus1=1224.1 kV=0.23 kW=1 PF=0.95 !Daily=Shape_84
New Load.LOAD85 Phases=1 Bus1=1226.3 kV=0.23 kW=1 PF=0.95 !Daily=Shape_85
New Load.LOAD86 Phases=1 Bus1=1228.2 kV=0.23 kW=1 PF=0.95 !Daily=Shape_86
New Load.LOAD87 Phases=1 Bus1=1269.1 kV=0.23 kW=1 PF=0.95 !Daily=Shape_87
New Load.LOAD88 Phases=1 Bus1=1303.3 kV=0.23 kW=1 PF=0.95 !Daily=Shape_88
New Load.LOAD89 Phases=1 Bus1=1318.2 kV=0.23 kW=1 PF=0.95 !Daily=Shape_89
New Load.LOAD90 Phases=1 Bus1=1319.1 kV=0.23 kW=1 PF=0.95 !Daily=Shape_90
New Load.LOAD91 Phases=1 Bus1=1321.3 kV=0.23 kW=1 PF=0.95 !Daily=Shape_91
New Load.LOAD92 Phases=1 Bus1=1323.2 kV=0.23 kW=1 PF=0.95 !Daily=Shape_92
New Load.LOAD93 Phases=1 Bus1=1325.2 kV=0.23 kW=1 PF=0.95 !Daily=Shape_93
New Load.LOAD94 Phases=1 Bus1=1329.3 kV=0.23 kW=1 PF=0.95 !Daily=Shape_94
New Load.LOAD95 Phases=1 Bus1=1330.2 kV=0.23 kW=1 PF=0.95 !Daily=Shape_95
New Load.LOAD96 Phases=1 Bus1=1349.3 kV=0.23 kW=1 PF=0.95 !Daily=Shape_96
New Load.LOAD97 Phases=1 Bus1=1394.2 kV=0.23 kW=1 PF=0.95 !Daily=Shape_97
New Load.LOAD98 Phases=1 Bus1=1399.1 kV=0.23 kW=1 PF=0.95 !Daily=Shape_98
New Load.LOAD99 Phases=1 Bus1=1414.2 kV=0.23 kW=1 PF=0.95 !Daily=Shape_99
New Load.LOAD100 Phases=1 Bus1=1416.2 kV=0.23 kW=1 PF=0.95 !Daily=Shape_100
New Load.LOAD101 Phases=1 Bus1=1457.2 kV=0.23 kW=1 PF=0.95 !Daily=Shape_101
New Load.LOAD102 Phases=1 Bus1=1487.1 kV=0.23 kW=1 PF=0.95 !Daily=Shape_102
New Load.LOAD103 Phases=1 Bus1=1488.3 kV=0.23 kW=1 PF=0.95 !Daily=Shape_103
New Load.LOAD104 Phases=1 Bus1=1504.1 kV=0.23 kW=1 PF=0.95 !Daily=Shape_104
New Load.LOAD105 Phases=1 Bus1=1515.2 kV=0.23 kW=1 PF=0.95 !Daily=Shape_105
New Load.LOAD106 Phases=1 Bus1=1517.1 kV=0.23 kW=1 PF=0.95 !Daily=Shape_106
New Load.LOAD107 Phases=1 Bus1=1520.2 kV=0.23 kW=1 PF=0.95 !Daily=Shape_107
New Load.LOAD108 Phases=1 Bus1=1530.3 kV=0.23 kW=1 PF=0.95 !Daily=Shape_108
New Load.LOAD109 Phases=1 Bus1=1545.3 kV=0.23 kW=1 PF=0.95 !Daily=Shape_109
New Load.LOAD110 Phases=1 Bus1=1546.2 kV=0.23 kW=1 PF=0.95 !Daily=Shape_110
New Load.LOAD111 Phases=1 Bus1=1559.3 kV=0.23 kW=1 PF=0.95 !Daily=Shape_111
New Load.LOAD112 Phases=1 Bus1=1594.1 kV=0.23 kW=1 PF=0.95 !Daily=Shape_112
New Load.LOAD113 Phases=1 Bus1=1596.1 kV=0.23 kW=1 PF=0.95 !Daily=Shape_113
New Load.LOAD114 Phases=1 Bus1=1598.2 kV=0.23 kW=1 PF=0.95 !Daily=Shape_114
New Load.LOAD115 Phases=1 Bus1=1629.1 kV=0.23 kW=1 PF=0.95 !Daily=Shape_115
New Load.LOAD116 Phases=1 Bus1=1630.3 kV=0.23 kW=1 PF=0.95 !Daily=Shape_116
New Load.LOAD117 Phases=1 Bus1=1655.3 kV=0.23 kW=1 PF=0.95 !Daily=Shape_117
New Load.LOAD118 Phases=1 Bus1=1659.1 kV=0.23 kW=1 PF=0.95 !Daily=Shape_118
New Load.LOAD119 Phases=1 Bus1=1691.1 kV=0.23 kW=1 PF=0.95 !Daily=Shape_119
New Load.LOAD120 Phases=1 Bus1=1723.3 kV=0.23 kW=1 PF=0.95 !Daily=Shape_120
New Load.LOAD121 Phases=1 Bus1=1740.3 kV=0.23 kW=1 PF=0.95 !Daily=Shape_121
New Load.LOAD122 Phases=1 Bus1=1752.3 kV=0.23 kW=1 PF=0.95 !Daily=Shape_122
New Load.LOAD123 Phases=1 Bus1=1766.3 kV=0.23 kW=1 PF=0.95 !Daily=Shape_123
New Load.LOAD124 Phases=1 Bus1=1771.1 kV=0.23 kW=1 PF=0.95 !Daily=Shape_124
New Load.LOAD125 Phases=1 Bus1=1777.2 kV=0.23 kW=1 PF=0.95 !Daily=Shape_125
New Load.LOAD126 Phases=1 Bus1=1785.1 kV=0.23 kW=1 PF=0.95 !Daily=Shape_126
New Load.LOAD127 Phases=1 Bus1=1799.3 kV=0.23 kW=1 PF=0.95 !Daily=Shape_127
New Load.LOAD128 Phases=1 Bus1=1801.2 kV=0.23 kW=1 PF=0.95 !Daily=Shape_128
New Load.LOAD129 Phases=1 Bus1=1805.2 kV=0.23 kW=1 PF=0.95 !Daily=Shape_129
New Load.LOAD130 Phases=1 Bus1=1807.3 kV=0.23 kW=1 PF=0.95 !Daily=Shape_130
New Load.LOAD131 Phases=1 Bus1=1809.1 kV=0.23 kW=1 PF=0.95 !Daily=Shape_131
New Load.LOAD132 Phases=1 Bus1=1817.3 kV=0.23 kW=1 PF=0.95 !Daily=Shape_132
New Load.LOAD133 Phases=1 Bus1=1822.3 kV=0.23 kW=1 PF=0.95 !Daily=Shape_133
New Load.LOAD134 Phases=1 Bus1=1830.2 kV=0.23 kW=1 PF=0.95 !Daily=Shape_134
New Load.LOAD135 Phases=1 Bus1=1831.3 kV=0.23 kW=1 PF=0.95 !Daily=Shape_135
New Load.LOAD136 Phases=1 Bus1=1839.3 kV=0.23 kW=1 PF=0.95 !Daily=Shape_136
New Load.LOAD137 Phases=1 Bus1=1848.3 kV=0.23 kW=1 PF=0.95 !Daily=Shape_137
New Load.LOAD138 Phases=1 Bus1=1856.3 kV=0.23 kW=1 PF=0.95 !Daily=Shape_138
New Load.LOAD139 Phases=1 Bus1=1857.2 kV=0.23 kW=1 PF=0.95 !Daily=Shape_139
New Load.LOAD140 Phases=1 Bus1=1865.2 kV=0.23 kW=1 PF=0.95 !Daily=Shape_140
New Load.LOAD141 Phases=1 Bus1=1867.3 kV=0.23 kW=1 PF=0.95 !Daily=Shape_141
New Load.LOAD142 Phases=1 Bus1=1870.3 kV=0.23 kW=1 PF=0.95 !Daily=Shape_142
New Load.LOAD143 Phases=1 Bus1=1883.1 kV=0.23 kW=1 PF=0.95 !Daily=Shape_143
New Load.LOAD144 Phases=1 Bus1=1888.1 kV=0.23 kW=1 PF=0.95 !Daily=Shape_144
New Load.LOAD145 Phases=1 Bus1=1906.1 kV=0.23 kW=1 PF=0.95 !Daily=Shape_145
New Load.LOAD146 Phases=1 Bus1=1919.3 kV=0.23 kW=1 PF=0.95 !Daily=Shape_146
New Load.LOAD147 Phases=1 Bus1=1936.2 kV=0.23 kW=1 PF=0.95 !Daily=Shape_147
New Load.LOAD148 Phases=1 Bus1=1939.3 kV=0.23 kW=1 PF=0.95 !Daily=Shape_148
New Load.LOAD149 Phases=1 Bus1=1952.2 kV=0.23 kW=1 PF=0.95 !Daily=Shape_149
New Load.LOAD150 Phases=1 Bus1=1953.1 kV=0.23 kW=1 PF=0.95 !Daily=Shape_150
New Load.LOAD151 Phases=1 Bus1=1957.2 kV=0.23 kW=1 PF=0.95 !Daily=Shape_151
New Load.LOAD152 Phases=1 Bus1=1959.2 kV=0.23 kW=1 PF=0.95 !Daily=Shape_152
New Load.LOAD153 Phases=1 Bus1=2005.2 kV=0.23 kW=1 PF=0.95 !Daily=Shape_153
New Load.LOAD154 Phases=1 Bus1=2030.1 kV=0.23 kW=1 PF=0.95 !Daily=Shape_154
New Load.LOAD155 Phases=1 Bus1=2033.2 kV=0.23 kW=1 PF=0.95 !Daily=Shape_155
New Load.LOAD156 Phases=1 Bus1=2039.1 kV=0.23 kW=1 PF=0.95 !Daily=Shape_156
New Load.LOAD157 Phases=1 Bus1=2040.1 kV=0.23 kW=1 PF=0.95 !Daily=Shape_157
New Load.LOAD158 Phases=1 Bus1=2051.1 kV=0.23 kW=1 PF=0.95 !Daily=Shape_158
New Load.LOAD159 Phases=1 Bus1=2075.2 kV=0.23 kW=1 PF=0.95 !Daily=Shape_159
New Load.LOAD160 Phases=1 Bus1=2085.2 kV=0.23 kW=1 PF=0.95 !Daily=Shape_160
New Load.LOAD161 Phases=1 Bus1=2096.2 kV=0.23 kW=1 PF=0.95 !Daily=Shape_161
New Load.LOAD162 Phases=1 Bus1=2099.3 kV=0.23 kW=1 PF=0.95 !Daily=Shape_162
New Load.LOAD163 Phases=1 Bus1=2100.3 kV=0.23 kW=1 PF=0.95 !Daily=Shape_163
New Load.LOAD164 Phases=1 Bus1=2125.2 kV=0.23 kW=1 PF=0.95 !Daily=Shape_164
New Load.LOAD165 Phases=1 Bus1=2164.1 kV=0.23 kW=1 PF=0.95 !Daily=Shape_165
New Load.LOAD166 Phases=1 Bus1=2177.1 kV=0.23 kW=1 PF=0.95 !Daily=Shape_166
New Load.LOAD167 Phases=1 Bus1=2184.1 kV=0.23 kW=1 PF=0.95 !Daily=Shape_167
New Load.LOAD168 Phases=1 Bus1=2195.1 kV=0.23 kW=1 PF=0.95 !Daily=Shape_168
New Load.LOAD169 Phases=1 Bus1=2199.2 kV=0.23 kW=1 PF=0.95 !Daily=Shape_169
New Load.LOAD170 Phases=1 Bus1=2220.3 kV=0.23 kW=1 PF=0.95 !Daily=Shape_170
New Load.LOAD171 Phases=1 Bus1=2227.3 kV=0.23 kW=1 PF=0.95 !Daily=Shape_171
New Load.LOAD172 Phases=1 Bus1=2250.2 kV=0.23 kW=1 PF=0.95 !Daily=Shape_172
New Load.LOAD173 Phases=1 Bus1=2252.1 kV=0.23 kW=1 PF=0.95 !Daily=Shape_173
New Load.LOAD174 Phases=1 Bus1=2256.2 kV=0.23 kW=1 PF=0.95 !Daily=Shape_174
New Load.LOAD175 Phases=1 Bus1=2266.1 kV=0.23 kW=1 PF=0.95 !Daily=Shape_175
